[TITLE]
;;Project Title/Notes

[OPTIONS]
;;Option             Value
FLOW_UNITS           CFS
INFILTRATION         GREEN_AMPT
FLOW_ROUTING         DYNWAVE
LINK_OFFSETS         ELEVATION
MIN_SLOPE            0
ALLOW_PONDING        YES
SKIP_STEADY_STATE    NO

START_DATE           06/18/2014
START_TIME           00:00:00
REPORT_START_DATE    06/18/2014
REPORT_START_TIME    00:00:00
END_DATE             06/24/2014
END_TIME             12:00:00
SWEEP_START          01/01
SWEEP_END            12/31
DRY_DAYS             0
REPORT_STEP          00:30:00
WET_STEP             00:01:00
DRY_STEP             00:05:00
ROUTING_STEP         00:01:00 
RULE_STEP            00:00:00

INERTIAL_DAMPING     PARTIAL
NORMAL_FLOW_LIMITED  BOTH
FORCE_MAIN_EQUATION  H-W
VARIABLE_STEP        0.75
LENGTHENING_STEP     5
MIN_SURFAREA         12.566
MAX_TRIALS           8
HEAD_TOLERANCE       0.005
SYS_FLOW_TOL         5
LAT_FLOW_TOL         5
MINIMUM_STEP         0.5
THREADS              4

[EVAPORATION]
;;Data Source    Parameters
;;-------------- ----------------
CONSTANT         0.0
DRY_ONLY         NO

[RAINGAGES]
;;Name           Format    Interval SCF      Source    
;;-------------- --------- ------ ------ ----------
June             VOLUME    0:01     1.0      TIMESERIES June            
SCS_24h_Type_II_0.25in VOLUME    0:05     1.0      TIMESERIES SCS_24h_Type_II_0.25in
SCS_24h_Type_II_0.5in VOLUME    0:05     1.0      TIMESERIES SCS_24h_Type_II_0.5in
SCS_24h_Type_II_1in VOLUME    0:05     1.0      TIMESERIES SCS_24h_Type_II_1in
SCS_24h_Type_II_2in VOLUME    0:05     1.0      TIMESERIES SCS_24h_Type_II_2in
SCS_24h_Type_II_4in VOLUME    0:05     1.0      TIMESERIES SCS_24h_Type_II_4in
SCS_6h_0.25in    VOLUME    0:05     1.0      TIMESERIES SCS_6h_0.25in   
SCS_6h_0.5in     VOLUME    0:05     1.0      TIMESERIES SCS_6h_0.5in    
SCS_6h_1in       VOLUME    0:05     1.0      TIMESERIES SCS_6h_1in      
SCS_6h_2in       VOLUME    0:05     1.0      TIMESERIES SCS_6h_2in      
SCS_6h_4in       VOLUME    0:05     1.0      TIMESERIES SCS_6h_4in      

[SUBCATCHMENTS]
;;Name           Rain Gage        Outlet           Area     %Imperv  Width    %Slope   CurbLen  SnowPack        
;;-------------- ---------------- ---------------- -------- -------- -------- -------- -------- ----------------
DrainageArea     June             Runon            1        100      500      0.5      0                        

[SUBAREAS]
;;Subcatchment   N-Imperv   N-Perv     S-Imperv   S-Perv     PctZero    RouteTo    PctRouted 
;;-------------- ---------- ---------- ---------- ---------- ---------- ---------- ----------
DrainageArea     0.011      0          0.05       0          100        OUTLET    

[INFILTRATION]
;;Subcatchment   Param1     Param2     Param3     Param4     Param5    
;;-------------- ---------- ---------- ---------- ---------- ----------
DrainageArea     6.69       0.26       0.217      7          0          MODIFIED_GREEN_AMPT

[JUNCTIONS]
;;Name           Elevation  MaxDepth   InitDepth  SurDepth   Aponded   
;;-------------- ---------- ---------- ---------- ---------- ----------
GravelStorage    0          1          0          0          4357      
Infiltration     0          0          0          0          0         
Media            0          3          0          0          4357      
Pond             5          1          0          0          4357      
SoilSuction      0          12         0          0          0         
Runon            5          10000      0          0          1000000   

[OUTFALLS]
;;Name           Elevation  Type       Stage Data       Gated    Route To        
;;-------------- ---------- ---------- ---------------- -------- ----------------
Drained          0          FREE                        NO                       
Infiltrated      0          FREE                        NO                       
Runoff           0          FREE                        NO                       

[CONDUITS]
;;Name           From Node        To Node          Length     Roughness  InOffset   OutOffset  InitFlow   MaxFlow   
;;-------------- ---------------- ---------------- ---------- ---------- ---------- ---------- ---------- ----------
Infiltrating     Infiltration     Infiltrated      400        0.01       0          0          0          0.012     
IntoMedia        Pond             Media            1000       0.01       *          *          0          0.106     
IntoStorage      Media            GravelStorage    1000       0.01       00         00         0          0         
Inflow           Runon            Pond             1000       0.01       *          *          0          0.843     

[ORIFICES]
;;Name           From Node        To Node          Type         Offset     Qcoeff     Gated    CloseTime 
;;-------------- ---------------- ---------------- ------------ ---------- ---------- -------- ----------
SuctionFlow      GravelStorage    SoilSuction      BOTTOM       0          0.65       YES      0         
SuctionRecovery  SoilSuction      Infiltration     BOTTOM       0          0.65       YES      0         
Underdrain       GravelStorage    Drained          SIDE         .25        1          NO       0         

[WEIRS]
;;Name           From Node        To Node          Type         CrestHt    Qcoeff     Gated    EndCon   EndCoeff   Surcharge  RoadWidth  RoadSurf   Coeff. Curve
;;-------------- ---------------- ---------------- ------------ ---------- ---------- -------- -------- ---------- ---------- ---------- ---------- ----------------
Runoff           Pond             Runoff           SIDEFLOW     6          0.65       YES      0        0          NO        

[OUTLETS]
;;Name           From Node        To Node          Offset     Type            QTable/Qcoeff    Qexpon     Gated   
;;-------------- ---------------- ---------------- ---------- --------------- ---------------- ---------- --------
SaturatedFlow    GravelStorage    Infiltration     0          FUNCTIONAL/HEAD 1                1          YES     

[XSECTIONS]
;;Link           Shape        Geom1            Geom2      Geom3      Geom4      Barrels    Culvert   
;;-------------- ------------ ---------------- ---------- ---------- ---------- ---------- ----------
Infiltrating     CIRCULAR     3                0          0          0          1                    
IntoMedia        CIRCULAR     20               0          0          0          1                    
IntoStorage      CIRCULAR     .5               0          0          0          1                    
Inflow           CIRCULAR     1                0          0          0          1                    
SuctionFlow      CIRCULAR     0.01             0          0          0
SuctionRecovery  CIRCULAR     0.01             0          0          0
Underdrain       CIRCULAR     0.5              0          0          0
Runoff           RECT_OPEN    1                400        0          0         

[LOSSES]
;;Link           Kentry     Kexit      Kavg       Flap Gate  Seepage   
;;-------------- ---------- ---------- ---------- ---------- ----------
Infiltrating     0          0          0          YES        0         
Inflow           0          0          0          YES        0         

[POLLUTANTS]
;;Name           Units  Crain      Cgw        Crdii      Kdecay     SnowOnly   Co-Pollutant     Co-Frac    Cdwf       Cinit     
;;-------------- ------ ---------- ---------- ---------- ---------- ---------- ---------------- ---------- ---------- ----------
PP               MG/L   0.0        0.0        0.0        0.0        NO         *                0.0        0.0        0.0       
DP               MG/L   0.0        0.0        0.0        0.0        NO         *                0.0        0.0        0.0       

[LANDUSES]
;;               Sweeping   Fraction   Last      
;;Name           Interval   Available  Swept     
;;-------------- ---------- ---------- ----------
General          0          0          0         

[COVERAGES]
;;Subcatchment   Land Use         Percent   
;;-------------- ---------------- ----------
DrainageArea     General          100       

[LOADINGS]
;;Subcatchment   Pollutant        Buildup   
;;-------------- ---------------- ----------

[BUILDUP]
;;Land Use       Pollutant        Function   Coeff1     Coeff2     Coeff3     Per Unit  
;;-------------- ---------------- ---------- ---------- ---------- ---------- ----------
General          PP               NONE       0.0        0.0        0.0        AREA      
General          DP               NONE       0.0        0.0        0.0        AREA      

[WASHOFF]
;;Land Use       Pollutant        Function   Coeff1     Coeff2     SweepRmvl  BmpRmvl   
;;-------------- ---------------- ---------- ---------- ---------- ---------- ----------
General          PP               EMC        0.19       0.0        0.0        0.0       
General          DP               EMC        0.19       0.0        0.0        0.0       

[CURVES]
;;Name           Type       X-Value    Y-Value   
;;-------------- ---------- ---------- ----------
SaturatedFlow    Rating     0          0.02      
SaturatedFlow               1          0.029     
SaturatedFlow               2          0.038     
;
DummyStorage     Storage    14         871       
DummyStorage                15         871       
DummyStorage                16         871       
DummyStorage                17         871       
;
MediaStorage     Storage    0          4357      
MediaStorage                1          4357      
MediaStorage                2          4357      
MediaStorage                3          4357      
;
PondedStorage    Storage    0          4357      
PondedStorage               1          4357      
;
StorageStorage   Storage    13         4357      
StorageStorage              14         4357      
StorageStorage              15         4357      
StorageStorage              16         4357      

[TIMESERIES]
;;Name           Date       Time       Value     
;;-------------- ---------- ---------- ----------
;Rain from UT weather station.
June             FILE "Rain_Law_6-11-2014.dat"
;
;SCS_24h_Type_II_0.25in design storm, total rainfall = 0.25 in, rain interval = 5 minutes, rain units = in.
SCS_24h_Type_II_0.25in            0:00       0.0002    
SCS_24h_Type_II_0.25in            0:05       0.000225  
SCS_24h_Type_II_0.25in            0:10       0.0002    
SCS_24h_Type_II_0.25in            0:15       0.000225  
SCS_24h_Type_II_0.25in            0:20       0.000225  
SCS_24h_Type_II_0.25in            0:25       0.0002    
SCS_24h_Type_II_0.25in            0:30       0.000225  
SCS_24h_Type_II_0.25in            0:35       0.000225  
SCS_24h_Type_II_0.25in            0:40       0.000225  
SCS_24h_Type_II_0.25in            0:45       0.000225  
SCS_24h_Type_II_0.25in            0:50       0.000225  
SCS_24h_Type_II_0.25in            0:55       0.000225  
SCS_24h_Type_II_0.25in            1:00       0.000225  
SCS_24h_Type_II_0.25in            1:05       0.00025   
SCS_24h_Type_II_0.25in            1:10       0.000225  
SCS_24h_Type_II_0.25in            1:15       0.000225  
SCS_24h_Type_II_0.25in            1:20       0.00025   
SCS_24h_Type_II_0.25in            1:25       0.000225  
SCS_24h_Type_II_0.25in            1:30       0.00025   
SCS_24h_Type_II_0.25in            1:35       0.00025   
SCS_24h_Type_II_0.25in            1:40       0.000225  
SCS_24h_Type_II_0.25in            1:45       0.00025   
SCS_24h_Type_II_0.25in            1:50       0.00025   
SCS_24h_Type_II_0.25in            1:55       0.00025   
SCS_24h_Type_II_0.25in            2:00       0.00025   
SCS_24h_Type_II_0.25in            2:05       0.00025   
SCS_24h_Type_II_0.25in            2:10       0.00025   
SCS_24h_Type_II_0.25in            2:15       0.000275  
SCS_24h_Type_II_0.25in            2:20       0.00025   
SCS_24h_Type_II_0.25in            2:25       0.00025   
SCS_24h_Type_II_0.25in            2:30       0.000275  
SCS_24h_Type_II_0.25in            2:35       0.00025   
SCS_24h_Type_II_0.25in            2:40       0.000275  
SCS_24h_Type_II_0.25in            2:45       0.00025   
SCS_24h_Type_II_0.25in            2:50       0.000275  
SCS_24h_Type_II_0.25in            2:55       0.000275  
SCS_24h_Type_II_0.25in            3:00       0.000275  
SCS_24h_Type_II_0.25in            3:05       0.000275  
SCS_24h_Type_II_0.25in            3:10       0.000275  
SCS_24h_Type_II_0.25in            3:15       0.000275  
SCS_24h_Type_II_0.25in            3:20       0.000275  
SCS_24h_Type_II_0.25in            3:25       0.000275  
SCS_24h_Type_II_0.25in            3:30       0.0003    
SCS_24h_Type_II_0.25in            3:35       0.000275  
SCS_24h_Type_II_0.25in            3:40       0.000275  
SCS_24h_Type_II_0.25in            3:45       0.0003    
SCS_24h_Type_II_0.25in            3:50       0.000275  
SCS_24h_Type_II_0.25in            3:55       0.0003    
SCS_24h_Type_II_0.25in            4:00       0.0003    
SCS_24h_Type_II_0.25in            4:05       0.0003    
SCS_24h_Type_II_0.25in            4:10       0.0003    
SCS_24h_Type_II_0.25in            4:15       0.0003    
SCS_24h_Type_II_0.25in            4:20       0.0003    
SCS_24h_Type_II_0.25in            4:25       0.000325  
SCS_24h_Type_II_0.25in            4:30       0.0003    
SCS_24h_Type_II_0.25in            4:35       0.000325  
SCS_24h_Type_II_0.25in            4:40       0.000325  
SCS_24h_Type_II_0.25in            4:45       0.000325  
SCS_24h_Type_II_0.25in            4:50       0.000325  
SCS_24h_Type_II_0.25in            4:55       0.000325  
SCS_24h_Type_II_0.25in            5:00       0.000325  
SCS_24h_Type_II_0.25in            5:05       0.00035   
SCS_24h_Type_II_0.25in            5:10       0.00035   
SCS_24h_Type_II_0.25in            5:15       0.000325  
SCS_24h_Type_II_0.25in            5:20       0.00035   
SCS_24h_Type_II_0.25in            5:25       0.00035   
SCS_24h_Type_II_0.25in            5:30       0.000375  
SCS_24h_Type_II_0.25in            5:35       0.00035   
SCS_24h_Type_II_0.25in            5:40       0.000375  
SCS_24h_Type_II_0.25in            5:45       0.00035   
SCS_24h_Type_II_0.25in            5:50       0.000375  
SCS_24h_Type_II_0.25in            5:55       0.000375  
SCS_24h_Type_II_0.25in            6:00       0.000375  
SCS_24h_Type_II_0.25in            6:05       0.000375  
SCS_24h_Type_II_0.25in            6:10       0.0004    
SCS_24h_Type_II_0.25in            6:15       0.000375  
SCS_24h_Type_II_0.25in            6:20       0.0004    
SCS_24h_Type_II_0.25in            6:25       0.000375  
SCS_24h_Type_II_0.25in            6:30       0.0004    
SCS_24h_Type_II_0.25in            6:35       0.000425  
SCS_24h_Type_II_0.25in            6:40       0.0004    
SCS_24h_Type_II_0.25in            6:45       0.0004    
SCS_24h_Type_II_0.25in            6:50       0.0004    
SCS_24h_Type_II_0.25in            6:55       0.000425  
SCS_24h_Type_II_0.25in            7:00       0.000425  
SCS_24h_Type_II_0.25in            7:05       0.000425  
SCS_24h_Type_II_0.25in            7:10       0.000425  
SCS_24h_Type_II_0.25in            7:15       0.000425  
SCS_24h_Type_II_0.25in            7:20       0.000425  
SCS_24h_Type_II_0.25in            7:25       0.00045   
SCS_24h_Type_II_0.25in            7:30       0.000425  
SCS_24h_Type_II_0.25in            7:35       0.00045   
SCS_24h_Type_II_0.25in            7:40       0.00045   
SCS_24h_Type_II_0.25in            7:45       0.00045   
SCS_24h_Type_II_0.25in            7:50       0.00045   
SCS_24h_Type_II_0.25in            7:55       0.00045   
SCS_24h_Type_II_0.25in            8:00       0.000475  
SCS_24h_Type_II_0.25in            8:05       0.000475  
SCS_24h_Type_II_0.25in            8:10       0.0005    
SCS_24h_Type_II_0.25in            8:15       0.000525  
SCS_24h_Type_II_0.25in            8:20       0.000525  
SCS_24h_Type_II_0.25in            8:25       0.00055   
SCS_24h_Type_II_0.25in            8:30       0.000575  
SCS_24h_Type_II_0.25in            8:35       0.0006    
SCS_24h_Type_II_0.25in            8:40       0.0006    
SCS_24h_Type_II_0.25in            8:45       0.000625  
SCS_24h_Type_II_0.25in            8:50       0.00065   
SCS_24h_Type_II_0.25in            8:55       0.00065   
SCS_24h_Type_II_0.25in            9:00       0.000675  
SCS_24h_Type_II_0.25in            9:05       0.00065   
SCS_24h_Type_II_0.25in            9:10       0.000675  
SCS_24h_Type_II_0.25in            9:15       0.000675  
SCS_24h_Type_II_0.25in            9:20       0.00065   
SCS_24h_Type_II_0.25in            9:25       0.000675  
SCS_24h_Type_II_0.25in            9:30       0.000675  
SCS_24h_Type_II_0.25in            9:35       0.000725  
SCS_24h_Type_II_0.25in            9:40       0.000725  
SCS_24h_Type_II_0.25in            9:45       0.000775  
SCS_24h_Type_II_0.25in            9:50       0.000775  
SCS_24h_Type_II_0.25in            9:55       0.000825  
SCS_24h_Type_II_0.25in            10:00      0.00085   
SCS_24h_Type_II_0.25in            10:05      0.0009    
SCS_24h_Type_II_0.25in            10:10      0.00095   
SCS_24h_Type_II_0.25in            10:15      0.000975  
SCS_24h_Type_II_0.25in            10:20      0.00103   
SCS_24h_Type_II_0.25in            10:25      0.00105   
SCS_24h_Type_II_0.25in            10:30      0.00112   
SCS_24h_Type_II_0.25in            10:35      0.0012    
SCS_24h_Type_II_0.25in            10:40      0.00125   
SCS_24h_Type_II_0.25in            10:45      0.00132   
SCS_24h_Type_II_0.25in            10:50      0.0014    
SCS_24h_Type_II_0.25in            10:55      0.00145   
SCS_24h_Type_II_0.25in            11:00      0.0016    
SCS_24h_Type_II_0.25in            11:05      0.00175   
SCS_24h_Type_II_0.25in            11:10      0.00192   
SCS_24h_Type_II_0.25in            11:15      0.00208   
SCS_24h_Type_II_0.25in            11:20      0.00225   
SCS_24h_Type_II_0.25in            11:25      0.0024    
SCS_24h_Type_II_0.25in            11:30      0.00498   
SCS_24h_Type_II_0.25in            11:35      0.0089    
SCS_24h_Type_II_0.25in            11:40      0.0135    
SCS_24h_Type_II_0.25in            11:45      0.021     
SCS_24h_Type_II_0.25in            11:50      0.0268    
SCS_24h_Type_II_0.25in            11:55      0.0198    
SCS_24h_Type_II_0.25in            12:00      0.00395   
SCS_24h_Type_II_0.25in            12:05      0.00358   
SCS_24h_Type_II_0.25in            12:10      0.00317   
SCS_24h_Type_II_0.25in            12:15      0.00282   
SCS_24h_Type_II_0.25in            12:20      0.00243   
SCS_24h_Type_II_0.25in            12:25      0.00205   
SCS_24h_Type_II_0.25in            12:30      0.00175   
SCS_24h_Type_II_0.25in            12:35      0.00168   
SCS_24h_Type_II_0.25in            12:40      0.0016    
SCS_24h_Type_II_0.25in            12:45      0.00148   
SCS_24h_Type_II_0.25in            12:50      0.00143   
SCS_24h_Type_II_0.25in            12:55      0.00132   
SCS_24h_Type_II_0.25in            13:00      0.00125   
SCS_24h_Type_II_0.25in            13:05      0.0012    
SCS_24h_Type_II_0.25in            13:10      0.00112   
SCS_24h_Type_II_0.25in            13:15      0.00112   
SCS_24h_Type_II_0.25in            13:20      0.00105   
SCS_24h_Type_II_0.25in            13:25      0.001     
SCS_24h_Type_II_0.25in            13:30      0.00095   
SCS_24h_Type_II_0.25in            13:35      0.000925  
SCS_24h_Type_II_0.25in            13:40      0.0009    
SCS_24h_Type_II_0.25in            13:45      0.00085   
SCS_24h_Type_II_0.25in            13:50      0.000825  
SCS_24h_Type_II_0.25in            13:55      0.0008    
SCS_24h_Type_II_0.25in            14:00      0.000775  
SCS_24h_Type_II_0.25in            14:05      0.00075   
SCS_24h_Type_II_0.25in            14:10      0.000725  
SCS_24h_Type_II_0.25in            14:15      0.000725  
SCS_24h_Type_II_0.25in            14:20      0.000725  
SCS_24h_Type_II_0.25in            14:25      0.0007    
SCS_24h_Type_II_0.25in            14:30      0.0007    
SCS_24h_Type_II_0.25in            14:35      0.000675  
SCS_24h_Type_II_0.25in            14:40      0.000675  
SCS_24h_Type_II_0.25in            14:45      0.00065   
SCS_24h_Type_II_0.25in            14:50      0.00065   
SCS_24h_Type_II_0.25in            14:55      0.000625  
SCS_24h_Type_II_0.25in            15:00      0.000625  
SCS_24h_Type_II_0.25in            15:05      0.0006    
SCS_24h_Type_II_0.25in            15:10      0.0006    
SCS_24h_Type_II_0.25in            15:15      0.000575  
SCS_24h_Type_II_0.25in            15:20      0.000575  
SCS_24h_Type_II_0.25in            15:25      0.00055   
SCS_24h_Type_II_0.25in            15:30      0.00055   
SCS_24h_Type_II_0.25in            15:35      0.000525  
SCS_24h_Type_II_0.25in            15:40      0.000525  
SCS_24h_Type_II_0.25in            15:45      0.000525  
SCS_24h_Type_II_0.25in            15:50      0.0005    
SCS_24h_Type_II_0.25in            15:55      0.000475  
SCS_24h_Type_II_0.25in            16:00      0.000475  
SCS_24h_Type_II_0.25in            16:05      0.000475  
SCS_24h_Type_II_0.25in            16:10      0.000475  
SCS_24h_Type_II_0.25in            16:15      0.00045   
SCS_24h_Type_II_0.25in            16:20      0.000475  
SCS_24h_Type_II_0.25in            16:25      0.00045   
SCS_24h_Type_II_0.25in            16:30      0.00045   
SCS_24h_Type_II_0.25in            16:35      0.00045   
SCS_24h_Type_II_0.25in            16:40      0.000425  
SCS_24h_Type_II_0.25in            16:45      0.00045   
SCS_24h_Type_II_0.25in            16:50      0.000425  
SCS_24h_Type_II_0.25in            16:55      0.00045   
SCS_24h_Type_II_0.25in            17:00      0.000425  
SCS_24h_Type_II_0.25in            17:05      0.0004    
SCS_24h_Type_II_0.25in            17:10      0.000425  
SCS_24h_Type_II_0.25in            17:15      0.0004    
SCS_24h_Type_II_0.25in            17:20      0.000425  
SCS_24h_Type_II_0.25in            17:25      0.0004    
SCS_24h_Type_II_0.25in            17:30      0.0004    
SCS_24h_Type_II_0.25in            17:35      0.0004    
SCS_24h_Type_II_0.25in            17:40      0.000375  
SCS_24h_Type_II_0.25in            17:45      0.0004    
SCS_24h_Type_II_0.25in            17:50      0.000375  
SCS_24h_Type_II_0.25in            17:55      0.000375  
SCS_24h_Type_II_0.25in            18:00      0.000375  
SCS_24h_Type_II_0.25in            18:05      0.000375  
SCS_24h_Type_II_0.25in            18:10      0.00035   
SCS_24h_Type_II_0.25in            18:15      0.000375  
SCS_24h_Type_II_0.25in            18:20      0.00035   
SCS_24h_Type_II_0.25in            18:25      0.00035   
SCS_24h_Type_II_0.25in            18:30      0.00035   
SCS_24h_Type_II_0.25in            18:35      0.000325  
SCS_24h_Type_II_0.25in            18:40      0.00035   
SCS_24h_Type_II_0.25in            18:45      0.000325  
SCS_24h_Type_II_0.25in            18:50      0.00035   
SCS_24h_Type_II_0.25in            18:55      0.0003    
SCS_24h_Type_II_0.25in            19:00      0.000325  
SCS_24h_Type_II_0.25in            19:05      0.000325  
SCS_24h_Type_II_0.25in            19:10      0.000325  
SCS_24h_Type_II_0.25in            19:15      0.0003    
SCS_24h_Type_II_0.25in            19:20      0.0003    
SCS_24h_Type_II_0.25in            19:25      0.0003    
SCS_24h_Type_II_0.25in            19:30      0.0003    
SCS_24h_Type_II_0.25in            19:35      0.000275  
SCS_24h_Type_II_0.25in            19:40      0.0003    
SCS_24h_Type_II_0.25in            19:45      0.000275  
SCS_24h_Type_II_0.25in            19:50      0.000275  
SCS_24h_Type_II_0.25in            19:55      0.000275  
SCS_24h_Type_II_0.25in            20:00      0.000275  
SCS_24h_Type_II_0.25in            20:05      0.000275  
SCS_24h_Type_II_0.25in            20:10      0.00025   
SCS_24h_Type_II_0.25in            20:15      0.000275  
SCS_24h_Type_II_0.25in            20:20      0.000275  
SCS_24h_Type_II_0.25in            20:25      0.00025   
SCS_24h_Type_II_0.25in            20:30      0.000275  
SCS_24h_Type_II_0.25in            20:35      0.000275  
SCS_24h_Type_II_0.25in            20:40      0.00025   
SCS_24h_Type_II_0.25in            20:45      0.000275  
SCS_24h_Type_II_0.25in            20:50      0.00025   
SCS_24h_Type_II_0.25in            20:55      0.00025   
SCS_24h_Type_II_0.25in            21:00      0.000275  
SCS_24h_Type_II_0.25in            21:05      0.00025   
SCS_24h_Type_II_0.25in            21:10      0.000275  
SCS_24h_Type_II_0.25in            21:15      0.00025   
SCS_24h_Type_II_0.25in            21:20      0.00025   
SCS_24h_Type_II_0.25in            21:25      0.00025   
SCS_24h_Type_II_0.25in            21:30      0.000275  
SCS_24h_Type_II_0.25in            21:35      0.00025   
SCS_24h_Type_II_0.25in            21:40      0.00025   
SCS_24h_Type_II_0.25in            21:45      0.00025   
SCS_24h_Type_II_0.25in            21:50      0.00025   
SCS_24h_Type_II_0.25in            21:55      0.00025   
SCS_24h_Type_II_0.25in            22:00      0.00025   
SCS_24h_Type_II_0.25in            22:05      0.00025   
SCS_24h_Type_II_0.25in            22:10      0.00025   
SCS_24h_Type_II_0.25in            22:15      0.00025   
SCS_24h_Type_II_0.25in            22:20      0.00025   
SCS_24h_Type_II_0.25in            22:25      0.000225  
SCS_24h_Type_II_0.25in            22:30      0.00025   
SCS_24h_Type_II_0.25in            22:35      0.00025   
SCS_24h_Type_II_0.25in            22:40      0.00025   
SCS_24h_Type_II_0.25in            22:45      0.000225  
SCS_24h_Type_II_0.25in            22:50      0.00025   
SCS_24h_Type_II_0.25in            22:55      0.000225  
SCS_24h_Type_II_0.25in            23:00      0.00025   
SCS_24h_Type_II_0.25in            23:05      0.00025   
SCS_24h_Type_II_0.25in            23:10      0.000225  
SCS_24h_Type_II_0.25in            23:15      0.00025   
SCS_24h_Type_II_0.25in            23:20      0.000225  
SCS_24h_Type_II_0.25in            23:25      0.000225  
SCS_24h_Type_II_0.25in            23:30      0.00025   
SCS_24h_Type_II_0.25in            23:35      0.000225  
SCS_24h_Type_II_0.25in            23:40      0.000225  
SCS_24h_Type_II_0.25in            23:45      0.00025   
SCS_24h_Type_II_0.25in            23:50      0.000225  
SCS_24h_Type_II_0.25in            23:55      0.000225  
SCS_24h_Type_II_0.25in            24:00      0         
;
;SCS_24h_Type_II_0.5in design storm, total rainfall = 0.5 in, rain interval = 5 minutes, rain units = in.
SCS_24h_Type_II_0.5in            0:00       0.0004    
SCS_24h_Type_II_0.5in            0:05       0.00045   
SCS_24h_Type_II_0.5in            0:10       0.0004    
SCS_24h_Type_II_0.5in            0:15       0.00045   
SCS_24h_Type_II_0.5in            0:20       0.00045   
SCS_24h_Type_II_0.5in            0:25       0.0004    
SCS_24h_Type_II_0.5in            0:30       0.00045   
SCS_24h_Type_II_0.5in            0:35       0.00045   
SCS_24h_Type_II_0.5in            0:40       0.00045   
SCS_24h_Type_II_0.5in            0:45       0.00045   
SCS_24h_Type_II_0.5in            0:50       0.00045   
SCS_24h_Type_II_0.5in            0:55       0.00045   
SCS_24h_Type_II_0.5in            1:00       0.00045   
SCS_24h_Type_II_0.5in            1:05       0.0005    
SCS_24h_Type_II_0.5in            1:10       0.00045   
SCS_24h_Type_II_0.5in            1:15       0.00045   
SCS_24h_Type_II_0.5in            1:20       0.0005    
SCS_24h_Type_II_0.5in            1:25       0.00045   
SCS_24h_Type_II_0.5in            1:30       0.0005    
SCS_24h_Type_II_0.5in            1:35       0.0005    
SCS_24h_Type_II_0.5in            1:40       0.00045   
SCS_24h_Type_II_0.5in            1:45       0.0005    
SCS_24h_Type_II_0.5in            1:50       0.0005    
SCS_24h_Type_II_0.5in            1:55       0.0005    
SCS_24h_Type_II_0.5in            2:00       0.0005    
SCS_24h_Type_II_0.5in            2:05       0.0005    
SCS_24h_Type_II_0.5in            2:10       0.0005    
SCS_24h_Type_II_0.5in            2:15       0.00055   
SCS_24h_Type_II_0.5in            2:20       0.0005    
SCS_24h_Type_II_0.5in            2:25       0.0005    
SCS_24h_Type_II_0.5in            2:30       0.00055   
SCS_24h_Type_II_0.5in            2:35       0.0005    
SCS_24h_Type_II_0.5in            2:40       0.00055   
SCS_24h_Type_II_0.5in            2:45       0.0005    
SCS_24h_Type_II_0.5in            2:50       0.00055   
SCS_24h_Type_II_0.5in            2:55       0.00055   
SCS_24h_Type_II_0.5in            3:00       0.00055   
SCS_24h_Type_II_0.5in            3:05       0.00055   
SCS_24h_Type_II_0.5in            3:10       0.00055   
SCS_24h_Type_II_0.5in            3:15       0.00055   
SCS_24h_Type_II_0.5in            3:20       0.00055   
SCS_24h_Type_II_0.5in            3:25       0.00055   
SCS_24h_Type_II_0.5in            3:30       0.0006    
SCS_24h_Type_II_0.5in            3:35       0.00055   
SCS_24h_Type_II_0.5in            3:40       0.00055   
SCS_24h_Type_II_0.5in            3:45       0.0006    
SCS_24h_Type_II_0.5in            3:50       0.00055   
SCS_24h_Type_II_0.5in            3:55       0.0006    
SCS_24h_Type_II_0.5in            4:00       0.0006    
SCS_24h_Type_II_0.5in            4:05       0.0006    
SCS_24h_Type_II_0.5in            4:10       0.0006    
SCS_24h_Type_II_0.5in            4:15       0.0006    
SCS_24h_Type_II_0.5in            4:20       0.0006    